Questionable use of curly braces in "c1 vout vin 2.2µ v={x} mfg=" ---" pn=" ---" type=" ---""
    Error: undefined symbol in: "[x]"
Circuit: * D:\Documenti\git repos\wdf_opAmp\wdf_RC\prova_RC.asc

Error on line 3 : c1 vout vin 2.2µ v=(x) mfg=" ---" pn=" ---" type=" ---"
	 Unknown parameter "x"
.OP point found by inspection.

Date: Mon Oct 29 15:56:37 2018
Total elapsed time: 0.084 seconds.

tnom = 27
temp = 27
method = modified trap
totiter = 2082
traniter = 2082
tranpoints = 1042
accept = 1042
rejected = 0
matrix size = 3
fillins = 0
solver = Normal
Matrix Compiler1: off  [0.0]/0.0/0.1
Matrix Compiler2: off  [0.0]/0.0/0.0

