Circuit: * D:\Documenti\git repos\wdf_opAmp\opamp_real\opamp_macromodel.asc

Limiting rise time of source v1 to 1e-005
Limiting fall time of source v1 to 1e-005
Direct Newton iteration for .op point succeeded.

Date: Tue Nov 27 11:37:13 2018
Total elapsed time: 0.091 seconds.

tnom = 27
temp = 27
method = modified trap
totiter = 4625
traniter = 4622
tranpoints = 2312
accept = 1791
rejected = 521
matrix size = 16
fillins = 5
solver = Normal
Matrix Compiler1: 802 bytes object code size  0.2/0.2/[0.1]
Matrix Compiler2: 1.11 KB object code size  0.1/0.2/[0.1]

