Circuit: * D:\Documenti\git repos\wdf_opAmp\opamp_ideal\opamp_ideal.asc

Limiting rise time of source v1 to 1e-005
Limiting fall time of source v1 to 1e-005
Direct Newton iteration for .op point succeeded.

Date: Tue Nov 27 11:45:16 2018
Total elapsed time: 0.093 seconds.

tnom = 27
temp = 27
method = modified trap
totiter = 10893
traniter = 10890
tranpoints = 5446
accept = 4010
rejected = 1436
matrix size = 10
fillins = 1
solver = Normal
Matrix Compiler1: 502 bytes object code size  0.1/0.1/[0.0]
Matrix Compiler2: off  [0.1]/0.2/0.1

